Version 4
SHEET 1 2444 948
WIRE 768 -80 688 -80
WIRE 864 -80 768 -80
WIRE 1120 -80 864 -80
WIRE 1408 -80 1120 -80
WIRE 1536 -80 1408 -80
WIRE 1680 -80 1536 -80
WIRE 1536 -32 1536 -80
WIRE 1680 -32 1680 -80
WIRE 1856 -32 1856 -64
WIRE 688 0 688 -80
WIRE -576 16 -736 16
WIRE -432 16 -576 16
WIRE -224 16 -304 16
WIRE -16 16 -224 16
WIRE 864 64 864 -80
WIRE -224 80 -224 16
WIRE 768 80 768 -80
WIRE 1408 80 1408 -80
WIRE 1536 80 1536 32
WIRE 1680 80 1680 32
WIRE -736 96 -736 16
WIRE -576 96 -576 16
WIRE -16 96 -16 16
WIRE 1856 96 1856 48
WIRE 224 112 224 48
WIRE 688 112 688 64
WIRE -368 192 -368 64
WIRE -224 192 -224 160
WIRE -224 192 -368 192
WIRE 1072 192 1072 112
WIRE 1120 192 1120 -80
WIRE -224 224 -224 192
WIRE -16 224 -16 160
WIRE 1856 224 1856 176
WIRE -576 240 -576 160
WIRE 864 240 864 144
WIRE 1008 240 864 240
WIRE 1680 240 1680 160
WIRE -736 256 -736 176
WIRE 1408 256 1408 160
WIRE 1408 256 1168 256
WIRE 1680 256 1680 240
WIRE 1680 256 1408 256
WIRE 1008 272 944 272
WIRE 944 320 944 272
WIRE 1408 320 1408 256
WIRE 1536 336 1536 160
WIRE -224 384 -224 304
WIRE 864 384 864 240
WIRE 768 400 768 160
WIRE 1088 416 1088 336
WIRE 1408 416 1408 384
WIRE 224 496 224 192
WIRE 864 544 864 464
WIRE 768 560 768 464
FLAG -224 16 VDD
FLAG 224 48 Vin1
FLAG 224 496 0
FLAG 1536 336 0
FLAG 864 544 0
FLAG 768 560 0
FLAG 688 112 0
FLAG 1408 416 0
FLAG 944 320 Vin1
FLAG 864 240 Vref
FLAG 1072 112 Iin
FLAG 1088 416 0
FLAG 1120 -80 VDD
FLAG 1680 240 Vout
FLAG -16 224 0
FLAG -224 384 0
FLAG -576 240 0
FLAG -736 256 0
FLAG 1856 -64 VDD
FLAG 1856 224 Iin
SYMBOL voltage 224 96 R0
WINDOW 123 24 124 Left 2
WINDOW 39 0 0 Left 0
SYMATTR Value2 AC 1
SYMATTR InstName V1
SYMATTR Value PULSE(0 3.3 0 0 0 3m 0.01)
SYMBOL OTA_symbol 1104 272 R0
SYMATTR InstName X1
SYMBOL res 1392 64 R0
SYMATTR InstName R1
SYMATTR Value 10k
SYMBOL res 1520 64 R0
SYMATTR InstName R2
SYMATTR Value 1k
SYMBOL res 1664 64 R0
SYMATTR InstName R3
SYMATTR Value 1k
SYMBOL diode 1520 -32 R0
SYMATTR InstName D1
SYMBOL diode 1664 -32 R0
SYMATTR InstName D2
SYMBOL res 848 48 R0
SYMATTR InstName R4
SYMATTR Value 1k
SYMBOL res 848 368 R0
SYMATTR InstName R5
SYMATTR Value 1k
SYMBOL res 752 64 R0
SYMATTR InstName R6
SYMATTR Value 10k
SYMBOL cap 752 400 R0
SYMATTR InstName C3
SYMATTR Value 1µ
SYMBOL cap 672 0 R0
SYMATTR InstName C4
SYMATTR Value 1µ
SYMBOL cap 1392 320 R0
SYMATTR InstName C1
SYMATTR Value 2p
SYMBOL LM317 -368 16 R0
SYMATTR InstName U1
SYMBOL cap -592 96 R0
SYMATTR InstName C2
SYMATTR Value 0.1µ
SYMBOL res -240 64 R0
SYMATTR InstName R7
SYMATTR Value 240
SYMBOL res -240 208 R0
SYMATTR InstName R8
SYMATTR Value 370
SYMBOL cap -32 96 R0
SYMATTR InstName C5
SYMATTR Value 1µ
SYMBOL voltage -736 80 R0
WINDOW 123 0 0 Left 0
WINDOW 39 0 0 Left 0
SYMATTR InstName V2
SYMATTR Value 5
SYMBOL res 1840 -48 R0
SYMATTR InstName R11
SYMATTR Value 38k
SYMBOL res 1840 80 R0
SYMATTR InstName R12
SYMATTR Value 10k
TEXT 208 728 Left 2 !.lib "D:\\INGENIERIA ELECTRONICA\\11. Onceavo Semestre\\Diseño de Sistemas Electrónicos\\Design Project\\Different Files\\Final Files - Mauricio\\CD4007.lib"
TEXT 208 696 Left 2 !.tran 0 20m 0 1u
TEXT 208 664 Left 2 ;.ac dec 100 1 1g
TEXT 208 632 Left 2 ;.step param Iref = 10u 30u 5u
TEXT 216 600 Left 2 !.op
TEXT 1736 376 Left 2 ;R_M0 = 1.6268V/30uA = 54.22k ohm\n1.6268 V = VD_M0 = (R_M0*3.3) / (R_M0+10k+R_variable)
