Version 4
SHEET 1 2484 948
WIRE 752 -16 672 -16
WIRE 768 -16 752 -16
WIRE 848 -16 768 -16
WIRE 1520 -16 1392 -16
WIRE 1664 -16 1520 -16
WIRE -576 16 -736 16
WIRE -432 16 -576 16
WIRE -224 16 -304 16
WIRE -16 16 -224 16
WIRE 1520 32 1520 -16
WIRE 1664 32 1664 -16
WIRE 2064 32 2064 0
WIRE 672 64 672 -16
WIRE -224 80 -224 16
WIRE -736 96 -736 16
WIRE -576 96 -576 16
WIRE -16 96 -16 16
WIRE 224 112 224 48
WIRE 848 128 848 -16
WIRE 752 144 752 -16
WIRE 1392 144 1392 -16
WIRE 1520 144 1520 96
WIRE 1664 144 1664 96
WIRE 976 160 976 80
WIRE 2064 160 2064 112
WIRE 672 176 672 128
WIRE -368 192 -368 64
WIRE -224 192 -224 160
WIRE -224 192 -368 192
WIRE -224 224 -224 192
WIRE -16 224 -16 160
WIRE -576 240 -576 160
WIRE 1200 240 1200 160
WIRE -736 256 -736 176
WIRE 2064 288 2064 240
WIRE 848 304 848 208
WIRE 976 304 976 240
WIRE 976 304 848 304
WIRE 1120 304 1024 304
WIRE 1360 320 1280 320
WIRE 1392 320 1392 224
WIRE 1392 320 1360 320
WIRE 1520 320 1520 224
WIRE 1520 320 1392 320
WIRE 1664 320 1664 224
WIRE 976 336 976 304
WIRE 1120 336 976 336
WIRE 1520 368 1520 320
WIRE -224 384 -224 304
WIRE 752 416 752 224
WIRE 1024 416 1024 304
WIRE 1024 416 752 416
WIRE 752 464 752 416
WIRE 1520 464 1520 432
WIRE 224 496 224 192
WIRE 1184 496 1184 384
WIRE 1232 496 1232 384
WIRE 752 624 752 528
FLAG -224 16 VDD
FLAG 224 48 Vin1
FLAG 224 496 0
FLAG 976 80 0
FLAG 752 624 0
FLAG 672 176 0
FLAG 1520 464 0
FLAG 752 416 Vin1
FLAG 976 304 Vref
FLAG 1184 496 Iin
FLAG 1200 160 0
FLAG 1520 -16 VDD
FLAG 1360 320 Vout
FLAG -16 224 0
FLAG -224 384 0
FLAG -576 240 0
FLAG -736 256 0
FLAG 2064 0 VDD
FLAG 2064 288 Iin
FLAG 1232 496 VDD
FLAG 1664 320 0
FLAG 768 -16 VDD
SYMBOL voltage 224 96 R0
WINDOW 123 24 124 Left 2
WINDOW 39 0 0 Left 0
SYMATTR Value2 AC 1
SYMATTR InstName V1
SYMATTR Value PULSE(0 3.3 0 0 0 3m 0.01)
SYMBOL OTA_symbol 1216 304 M180
SYMATTR InstName X1
SYMBOL res 1376 128 R0
SYMATTR InstName R1
SYMATTR Value 10k
SYMBOL res 1504 128 R0
SYMATTR InstName R2
SYMATTR Value 1k
SYMBOL res 1648 128 R0
SYMATTR InstName R3
SYMATTR Value 1k
SYMBOL diode 1504 32 R0
SYMATTR InstName D1
SYMBOL diode 1648 32 R0
SYMATTR InstName D2
SYMBOL res 832 112 R0
SYMATTR InstName R4
SYMATTR Value 1k
SYMBOL res 960 256 M180
WINDOW 0 36 76 Left 2
WINDOW 3 36 40 Left 2
SYMATTR InstName R5
SYMATTR Value 570
SYMBOL res 736 128 R0
SYMATTR InstName R6
SYMATTR Value 10k
SYMBOL cap 736 464 R0
SYMATTR InstName C3
SYMATTR Value 1µ
SYMBOL cap 656 64 R0
SYMATTR InstName C4
SYMATTR Value 1µ
SYMBOL cap 1504 368 R0
WINDOW 0 -93 57 Left 2
SYMATTR InstName C_esp32
SYMATTR Value 2p
SYMBOL LM317 -368 16 R0
SYMATTR InstName U1
SYMBOL cap -592 96 R0
SYMATTR InstName C2
SYMATTR Value 0.1µ
SYMBOL res -240 64 R0
SYMATTR InstName R7
SYMATTR Value 240
SYMBOL res -240 208 R0
SYMATTR InstName R8
SYMATTR Value 370
SYMBOL cap -32 96 R0
SYMATTR InstName C5
SYMATTR Value 1µ
SYMBOL voltage -736 80 R0
WINDOW 123 0 0 Left 0
WINDOW 39 0 0 Left 0
SYMATTR InstName V2
SYMATTR Value 5
SYMBOL res 2048 16 R0
SYMATTR InstName R11
SYMATTR Value 38k
SYMBOL res 2048 144 R0
SYMATTR InstName R12
SYMATTR Value 10k
TEXT 208 728 Left 2 !.lib "C:\\Users\\PC\\Downloads\\Diseño SE 2024_1\\ProyectoCorregido\\CD4007.lib"
TEXT 208 696 Left 2 !.tran 0 25m 0 1u
TEXT 208 664 Left 2 ;.ac dec 100 1 1g
TEXT 208 632 Left 2 ;.step param Iref = 10u 30u 5u
TEXT 216 600 Left 2 ;.op
TEXT 1776 392 Left 2 ;R_M0 = 1.6268V/30uA = 54.22k ohm\n1.6266 V = VD_M0 = (R_M0*3.3) / (R_M0+10k+R_variable)
TEXT -672 -96 Left 5 ;Regulador de tensión
TEXT 24 -80 Left 5 ;Fuente de alimentación
TEXT 712 -96 Left 5 ;Sistema completo (incluyendo OTA)
TEXT 1816 -96 Left 5 ;Fuente de corriente
